*===============================================================================
* Texture2Par Input File  |  Written by t2py
*===============================================================================
 MODFLOW                                / Model Type
 welllog_01.dat                         / Well Log File
 None                                   / Hydrogeologic Units File
*-------------------------------------------------------------------------------
* Model Settings (MODFLOW)
*-------------------------------------------------------------------------------
 vv_working.nam                         / Name File
 vv_working_orig.lpf                    / Layer Parameter Template File
 None                                   / Pilot Point Node Zones File
 0.0000                                 / xOffset
 0.0000                                 / yOffset
 0.0000                                 / Rotation
*-------------------------------------------------------------------------------
* Program Settings (True/False)
*-------------------------------------------------------------------------------
 True                                   / Output Cell Files
*-------------------------------------------------------------------------------
* Variogram Settings
*-------------------------------------------------------------------------------
 1                                      / Variogram Type (itype)
 1.0000                                 / Sill
 5.0000e+02                             / [Maximum] Range
 5.0000e+02                             / Minimum Range
 0.0000                                 / Anisotropy Angle (from North)
 0.0000                                 / Nugget
 16                                     / [Maximum] Wells used in kriging
*-------------------------------------------------------------------------------
* Global Settings
*-------------------------------------------------------------------------------
 0.0070                                 / KCk
 0.0099                                 / KFk
.372883542991868                        / KHp
 -0.6200                                / KVp
 1.0000                                 / Syp
*-------------------------------------------------------------------------------
* Pilot Points - X  Y  KCMin  deltaKC  KFMin  deltaKF  SsC  SsF  SyC  SyF  AnisoC  AnisoF  Zone
*-------------------------------------------------------------------------------
250.00 500.00 68.0398512055847 0.00000000000000 .861454035702128 0.00000000000000 5.192e-07 2.200e-03 1.050e-01 7.000e-02 10.00 10.00 1
*-------------------------------------------------------------------------------
* Aquitard Pilot Points - X  Y  KCMin  deltaKC  KFMin  deltaKF  AnisoC  AnisoF  Zone
*-------------------------------------------------------------------------------
*-------------------------------------------------------------------------------
* EOF
