# WEL package for  MODFLOW-2005, generated by Flopy.
        20        53 
        20         0 # stress period 1
         1       104       142      -82.060005
         1        47       141      -24.082277
         1        69       207      -42.329067
         1        96        71       -58.03193
         1        88       174       -47.22534
         1        56       121        -77.6486
         1        84        41        -83.4366
         1       101       109       -48.85921
         1        32       158      -44.385406
         1        76        95      -45.661495
         1        66       180      -54.918434
         1       109       155       -88.80885
         1       102        57       -99.51103
         1        26        52      -35.729687
         1        25       163       -72.48123
         1        17        46       -87.29505
         1        54        65       -91.70076
         1        62        28       -71.99906
         1        26       225      -24.500546
         1        61       149       -74.02874
