# RCH package for  MODFLOW-2005, generated by Flopy.
         3        53
         1        -1 # Stress period 1
CONSTANT    .00123488151                                   # Recharge
