# DIS package for  MODFLOW-2005, generated by Flopy.
         1       125       250         1         4         2
  0
CONSTANT    4.000000E+00                           #delr                          
CONSTANT    4.000000E+00                           #delc                          
CONSTANT    2.500000E+01                           #model_top                     
CONSTANT    0.000000E+00                           #botm layer 1                  
      1.000000             1  1.000000  SS 
